
This summary information was generated by ElastoDyn on 06-Dec-2023 at 21:19:53.


Turbine features:

            Upwind, 3-bladed rotor with rigid hub.
            The model has 0 of 24 DOFs active (enabled) at start-up.
 Disabled   Platform horizontal surge translation DOF 
 Disabled   Platform horizontal sway translation DOF 
 Disabled   Platform vertical heave translation DOF 
 Disabled   Platform roll tilt rotation DOF 
 Disabled   Platform pitch tilt rotation DOF 
 Disabled   Platform yaw rotation DOF 
 Disabled   1st tower fore-aft bending mode DOF 
 Disabled   1st tower side-to-side bending mode DOF 
 Disabled   2nd tower fore-aft bending mode DOF 
 Disabled   2nd tower side-to-side bending mode DOF 
 Disabled   Nacelle yaw DOF 
 Disabled   Rotor-furl DOF 
 Disabled   Variable speed generator DOF 
 Disabled   Drivetrain rotational-flexibility DOF 
 Disabled   Tail-furl DOF 
 Disabled   1st flapwise bending-mode DOF of blade 1 
 Disabled   1st edgewise bending-mode DOF of blade 1 
 Disabled   2nd flapwise bending-mode DOF of blade 1 
 Disabled   1st flapwise bending-mode DOF of blade 2 
 Disabled   1st edgewise bending-mode DOF of blade 2 
 Disabled   2nd flapwise bending-mode DOF of blade 2 
 Disabled   1st flapwise bending-mode DOF of blade 3 
 Disabled   1st edgewise bending-mode DOF of blade 3 
 Disabled   2nd flapwise bending-mode DOF of blade 3 


Time steps:

    Structural            (s)        0.00625000


Some calculated parameters:

    Hub-Height            (m)           106.614
    Flexible Tower Length (m)           101.000
    Flexible Blade Length (m)            73.500


Rotor mass properties:

    Rotor Mass            (kg)       151962.125
    Rotor Inertia         (kg-m^2) 83780512.000
                                        Blade 1      Blade 2      Blade 3
                                        -------      -------      -------
    Mass                  (kg)        33987.375    33987.375    33987.375
    Second Mass Moment    (kg-m^2) 25613818.000 25613818.000 25613818.000
    First Mass Moment     (kg-m)     733293.562   733293.562   733293.562
    Center of Mass        (m)            21.575       21.575       21.575


Additional mass properties:

    Tower-top Mass        (kg)       351962.125
    Tower Mass            (kg)       400761.594
    Platform Mass         (kg)            0.000
    Mass Incl. Platform   (kg)       752723.750


Interpolated tower properties:

Node  TwFract   HNodes  DHNodes  TMassDen    FAStiff    SSStiff
 (-)      (-)      (m)      (m)    (kg/m)     (Nm^2)     (Nm^2)
   1    0.042    4.208    8.417  5441.520  5.812E+11  5.812E+11
   2    0.125   12.625    8.417  5145.763  5.169E+11  5.169E+11
   3    0.208   21.042    8.417  4857.852  4.579E+11  4.579E+11
   4    0.292   29.458    8.417  4578.777  4.045E+11  4.045E+11
   5    0.375   37.875    8.417  4308.530  3.562E+11  3.562E+11
   6    0.458   46.292    8.417  4046.135  3.122E+11  3.122E+11
   7    0.542   54.708    8.417  3791.585  2.723E+11  2.723E+11
   8    0.625   63.125    8.417  3544.880  2.361E+11  2.361E+11
   9    0.708   71.542    8.417  3306.028  2.036E+11  2.036E+11
  10    0.792   79.958    8.417  3076.012  1.747E+11  1.747E+11
  11    0.875   88.375    8.417  2854.815  1.493E+11  1.493E+11
  12    0.958   96.792    8.417  2663.337  1.208E+11  1.208E+11


Interpolated blade 1 properties:

Node  BlFract   RNodes  DRNodes PitchAxis  StrcTwst  BMassDen    FlpStff    EdgStff
 (-)      (-)      (m)      (m)       (-)     (deg)    (kg/m)     (Nm^2)     (Nm^2)
   1    0.028    3.542    4.083     0.250    16.470  1141.481  6.704E+09  5.906E+09
   2    0.083    7.625    4.083     0.250    15.173  1052.154  4.757E+09  5.405E+09
   3    0.139   11.708    4.083     0.250    10.157   912.922  2.176E+09  4.786E+09
   4    0.194   15.792    4.083     0.250     7.445   839.616  1.224E+09  4.724E+09
   5    0.250   19.875    4.083     0.250     5.539   756.159  7.658E+08  4.270E+09
   6    0.306   23.958    4.083     0.250     3.841   646.811  5.083E+08  3.274E+09
   7    0.361   28.042    4.083     0.250     2.433   543.132  3.352E+08  2.388E+09
   8    0.417   32.125    4.083     0.250     1.345   462.116  2.256E+08  1.783E+09
   9    0.472   36.208    4.083     0.250     0.510   391.458  1.491E+08  1.317E+09
  10    0.528   40.292    4.083     0.250    -0.130   329.726  9.691E+07  9.572E+08
  11    0.583   44.375    4.083     0.250    -0.640   277.889  6.268E+07  6.924E+08
  12    0.639   48.458    4.083     0.250    -1.036   233.153  4.009E+07  4.941E+08
  13    0.694   52.542    4.083     0.250    -1.413   193.234  2.511E+07  3.436E+08
  14    0.750   56.625    4.083     0.250    -1.975   160.000  1.585E+07  2.347E+08
  15    0.806   60.708    4.083     0.250    -2.664   132.421  1.062E+07  1.594E+08
  16    0.861   64.792    4.083     0.250    -2.866   106.821  6.954E+06  1.051E+08
  17    0.917   68.875    4.083     0.250    -2.722    83.239  4.222E+06  6.367E+07
  18    0.972   72.958    4.083     0.250    -2.291    61.107  2.277E+06  3.437E+07


Interpolated blade 2 properties:

Node  BlFract   RNodes  DRNodes PitchAxis  StrcTwst  BMassDen    FlpStff    EdgStff
 (-)      (-)      (m)      (m)       (-)     (deg)    (kg/m)     (Nm^2)     (Nm^2)
   1    0.028    3.542    4.083     0.250    16.470  1141.481  6.704E+09  5.906E+09
   2    0.083    7.625    4.083     0.250    15.173  1052.154  4.757E+09  5.405E+09
   3    0.139   11.708    4.083     0.250    10.157   912.922  2.176E+09  4.786E+09
   4    0.194   15.792    4.083     0.250     7.445   839.616  1.224E+09  4.724E+09
   5    0.250   19.875    4.083     0.250     5.539   756.159  7.658E+08  4.270E+09
   6    0.306   23.958    4.083     0.250     3.841   646.811  5.083E+08  3.274E+09
   7    0.361   28.042    4.083     0.250     2.433   543.132  3.352E+08  2.388E+09
   8    0.417   32.125    4.083     0.250     1.345   462.116  2.256E+08  1.783E+09
   9    0.472   36.208    4.083     0.250     0.510   391.458  1.491E+08  1.317E+09
  10    0.528   40.292    4.083     0.250    -0.130   329.726  9.691E+07  9.572E+08
  11    0.583   44.375    4.083     0.250    -0.640   277.889  6.268E+07  6.924E+08
  12    0.639   48.458    4.083     0.250    -1.036   233.153  4.009E+07  4.941E+08
  13    0.694   52.542    4.083     0.250    -1.413   193.234  2.511E+07  3.436E+08
  14    0.750   56.625    4.083     0.250    -1.975   160.000  1.585E+07  2.347E+08
  15    0.806   60.708    4.083     0.250    -2.664   132.421  1.062E+07  1.594E+08
  16    0.861   64.792    4.083     0.250    -2.866   106.821  6.954E+06  1.051E+08
  17    0.917   68.875    4.083     0.250    -2.722    83.239  4.222E+06  6.367E+07
  18    0.972   72.958    4.083     0.250    -2.291    61.107  2.277E+06  3.437E+07


Interpolated blade 3 properties:

Node  BlFract   RNodes  DRNodes PitchAxis  StrcTwst  BMassDen    FlpStff    EdgStff
 (-)      (-)      (m)      (m)       (-)     (deg)    (kg/m)     (Nm^2)     (Nm^2)
   1    0.028    3.542    4.083     0.250    16.470  1141.481  6.704E+09  5.906E+09
   2    0.083    7.625    4.083     0.250    15.173  1052.154  4.757E+09  5.405E+09
   3    0.139   11.708    4.083     0.250    10.157   912.922  2.176E+09  4.786E+09
   4    0.194   15.792    4.083     0.250     7.445   839.616  1.224E+09  4.724E+09
   5    0.250   19.875    4.083     0.250     5.539   756.159  7.658E+08  4.270E+09
   6    0.306   23.958    4.083     0.250     3.841   646.811  5.083E+08  3.274E+09
   7    0.361   28.042    4.083     0.250     2.433   543.132  3.352E+08  2.388E+09
   8    0.417   32.125    4.083     0.250     1.345   462.116  2.256E+08  1.783E+09
   9    0.472   36.208    4.083     0.250     0.510   391.458  1.491E+08  1.317E+09
  10    0.528   40.292    4.083     0.250    -0.130   329.726  9.691E+07  9.572E+08
  11    0.583   44.375    4.083     0.250    -0.640   277.889  6.268E+07  6.924E+08
  12    0.639   48.458    4.083     0.250    -1.036   233.153  4.009E+07  4.941E+08
  13    0.694   52.542    4.083     0.250    -1.413   193.234  2.511E+07  3.436E+08
  14    0.750   56.625    4.083     0.250    -1.975   160.000  1.585E+07  2.347E+08
  15    0.806   60.708    4.083     0.250    -2.664   132.421  1.062E+07  1.594E+08
  16    0.861   64.792    4.083     0.250    -2.866   106.821  6.954E+06  1.051E+08
  17    0.917   68.875    4.083     0.250    -2.722    83.239  4.222E+06  6.367E+07
  18    0.972   72.958    4.083     0.250    -2.291    61.107  2.277E+06  3.437E+07


Requested Outputs:


 Col   Parameter            Units               
 ---   ---------------      ---------------     
   0   Time                 (s)                 
   1   OoPDefl1             (m)                 
   2   IPDefl1              (m)                 
   3   BldPitch1            (deg)               
   4   Azimuth              (deg)               
   5   RotSpeed             (rpm)               
   6   GenSpeed             (rpm)               
   7   TTDspFA              (m)                 
   8   TTDspSS              (m)                 
   9   RootMyc1             (kN-m)              
  10   RotThrust            (kN)                
  11   RotTorq              (kN-m)              
  12   RotPwr               (kW)                


  Requested Output Channels at each blade station:
 Col   Parameter            Units               
 ---   ---------------      ---------------     
