
This summary information was generated by AeroDyn on 06-Dec-2023 at 21:19:53.

======  General Options  ============================================================================
            1  WakeMod        - Type of wake/induction model: Blade-Element/Momentum Theory
            1  AFAeroMod      - Type of blade airfoil aerodynamics model: steady
            0  TwrPotent      - Type of tower influence on wind based on potential flow around the tower: none
            0  TwrShadow      - Type of tower influence on wind based on downstream tower shadow: none
            F  TwrAero        - Calculate tower aerodynamic loads? No
            F  CavitCheck     - Perform cavitation check? No
            F  Buoyancy       - Include buoyancy effects? No
======  Blade-Element/Momentum Theory Options  ======================================================
            2  SkewMod        - Type of skewed-wake correction model: Pitt/Peters
            T  TipLoss        - Use the Prandtl tip-loss model? Yes
            T  HubLoss        - Use the Prandtl hub-loss model? Yes
            T  TanInd         - Include tangential induction in BEMT calculations? Yes
            T  AIDrag         - Include the drag term in the axial-induction calculation? Yes
            T  TIDrag         - Include the drag term in the tangential-induction calculation? Yes
   5.0000E-05  IndToler       - Convergence tolerance for BEM induction factors (radians)
======  Outputs  ====================================================================================
            3  NBlOuts        - Number of blade nodes selected for output
           18  NumBlNds       - Number of blade nodes in the analysis
               Blade nodes selected for output:  Output node  Analysis node
                                                 -----------  -------------
                                                           1              1
                                                           2              9
                                                           3             17
            0  NTwOuts        - Number of tower nodes selected for output

               Requested Output Channels:
                Col   Parameter            Units               
                ---   ---------------      ---------------     
                  0   Time                 (s)                 
                  1   RtAeroFxh            (N)                 
                  2   RtAeroFyh            (N)                 
                  3   RtAeroFzh            (N)                 
                  4   RtAeroMxh            (N-m)               
                  5   RtAeroMyh            (N-m)               
                  6   RtAeroMzh            (N-m)               
                  7   RtAeroPwr            (W)                 
                  8   RtAeroCp             (-)                 
                  9   RtAeroCt             (-)                 
                 10   RtTSR                (-)                 
                 11   RtVavgxh             (m/s)               


               Requested Output Channels at each blade station:
                Col   Parameter            Units               
                ---   ---------------      ---------------     


Buoyancy parameters:

Hub volume (m^3):           0.000
Nacelle volume (m^3):       0.000
Total blade volume (m^3):   0.000
Tower volume (m^3):         0.000
